 &time_control
 run_days                            = 10,
 run_hours                           = 0,
 run_minutes                         = 0,
 run_seconds                         = 0,
 start_year                          = YYYY1,
 start_month                         = MM1,
 start_day                           = DD1,
 start_hour                          = HH1,
 start_minute                        = 00,
 start_second                        = 00,
 end_year                            = YYYY2,
 end_month                           = MM2,
 end_day                             = DD2,
 end_hour                            = HH2,
 end_minute                          = 00,
 end_second                          = 00,
 interval_seconds                    = 10800
 input_from_file                     = .true.,
 history_interval                    = 1444800,
 frames_per_outfile                  = 1,
 restart                             = .false.,
 restart_interval                    = 1444800,
 io_form_history                     = 2
 io_form_restart                     = 102
 io_form_input                       = 2
 io_form_boundary                    = 2
 iofields_filename                   = "htr_iofields_list.txt"
 output_diagnostics                  = 0
 auxhist8_outname                    = "wrfhtr_d<domain>_<date>"
 io_form_auxhist8                    = 2
 auxhist8_interval                   = 60
 frames_per_auxhist8                 = 1
 auxhist23_outname                   = "wrfplev_d<domain>_<date>"
 io_form_auxhist23                   = 2
 auxhist23_interval                  = 60
 frames_per_auxhist23                = 1
 io_form_auxinput4                   = 2
 auxinput4_inname                    = "wrflowinp_d<domain>"
 auxinput4_interval                  = 180
 debug_level                         = 0
 use_netcdf_classic                  = .true. 
 /

 &diags
 p_lev_diags                         = 1
 p_lev_diags_dfi                     = 0
 num_press_levels                    = 20
 press_levels                        = 100000.,95000.,90000.,85000.,80000.,75000.,70000.,65000.,60000.,55000.,50000.,45000.,40000.,35000.,30000.,25000.,20000.,15000.,10000.,5000.
 use_tot_or_hyd_p                    = 1
 p_lev_missing                       = 0
 p_lev_intervl8                      = 3600
 kfeta_shal_only                     = 0
 kfeta_shal_dlim                     = 1000.,
 grell_shal_only                     = 0
 shal_fdbfrc2g                       = 1.0
 run_kf2                             = .false.,
 ts_interval_sec                     = 43200,
 /

 &afwa
 afwa_diag_opt                       = 1
 afwa_ptype_opt                      = 0
 afwa_vil_opt                        = 0
 afwa_radar_opt                      = 0
 afwa_severe_opt                     = 1
 afwa_icing_opt                      = 0
 afwa_vis_opt                        = 0
 afwa_cloud_opt                      = 0
 afwa_therm_opt                      = 0
 afwa_turb_opt                       = 0
 afwa_buoy_opt                       = 0
 afwa_ptype_ccn_tmp                  = 264.15,
 afwa_ptype_tot_melt                 = 50,
 /

 &domains
 time_step                           = 18,
 time_step_fract_num                 = 0,
 time_step_fract_den                 = 1,
 max_dom                             = 1,
 s_we                                = 1,
 e_we                                = 2041,
 s_sn                                = 1,
 e_sn                                = 1131,
 s_vert                              = 1,
 e_vert                              = 49,
 p_top_requested                     = 3000,
 num_metgrid_levels                  = 24,
 num_metgrid_soil_levels             = 4,
 max_dz                              = 1000.
 auto_levels_opt                     = 2
 dzbot                               = 30.
 dzstretch_s                         = 1.3
 dzstretch_u                         = 1.1
 dx                                  = 3000,
 dy                                  = 3000,
 grid_id                             = 1,
 parent_id                           = 0,
 i_parent_start                      = 1,
 j_parent_start                      = 1,
 parent_grid_ratio                   = 1,
 parent_time_step_ratio              = 1,
 feedback                            = 1,
 smooth_option                       = 0
 numtiles                            = 1,
 nproc_x                             = 62,
 nproc_y                             = 96,
 use_adaptive_time_step              = .false.,
 step_to_output_time                 = .true.,
 target_cfl                          = 1.2,
 target_hcfl                         = 0.84,
 max_step_increase_pct               = 5,
 starting_time_step                  = -1,
 max_time_step                       = 38,
 min_time_step                       = 24,
 adaptation_domain                   =  1
 max_ts_locs                         = 115,
 ts_buf_size                         = 200,
 tslist_unstagger_winds              = .true.,
 max_ts_level                        = 48,
 /

 &physics
 mp_physics                          = 8,
 ra_lw_physics                       = 4,
 ra_sw_physics                       = 4,
 radt                                = 15,
 swint_opt                           = 1,
 sf_sfclay_physics                   = 2,
 sf_surface_physics                  = 2,
 bl_pbl_physics                      = 2,
 bldt                                = 0,
 cu_physics                          = 0,
 cudt                                = 0,
 ishallow                            = 0,
 isfflx                              = 1,
 ifsnow                              = 1,
 icloud                              = 1,
 surface_input_source                = 3,
 num_soil_layers                     = 4,
 num_land_cat                        = 21,
 sf_urban_physics                    = 0,
 sst_skin                            = 0,
 sst_update                          = 1,
 usemonalb                           = .true.,
 do_radar_ref                        = 0,
 hailcast_opt                        = 0,
 lightning_option                    = 2,
 lightning_dt                        = 3600.,
 lightning_start_seconds             = 0.,
 flashrate_factor                    = 0.1,
 cellcount_method                    = 0,
 cldtop_adjustment                   = 0. ,
 iccg_method                         = 1,
 iccg_prescribed_num                 = 3.,
 iccg_prescribed_den                 = 1.,
 grav_settling                       = 2,
 /

 &fdda
 /

 &dynamics
 w_damping                           = 1,
 diff_opt                            = 0,
 km_opt                              = 4,
 diff_6th_opt                        = 2,
 diff_6th_factor                     = 0.25,
 diff_6th_slopeopt                   = 1,
 diff_6th_thresh                     = 0.10,
 base_temp                           = 300.
 damp_opt                            = 3,
 zdamp                               = 5000.,
 dampcoef                            = 0.2,
 khdif                               = 0,
 kvdif                               = 0,
 SMDIV                               = 0.1,
 EMDIV                               = 0.01,
 EPSSM                               = 0.6,
 time_step_sound                     = 8,
 non_hydrostatic                     = .true.,
 moist_adv_opt                       = 1,     
 scalar_adv_opt                      = 1,     
 H_MOM_ADV_ORDER                     = 5,
 V_MOM_ADV_ORDER                     = 5,
 H_SCA_ADV_ORDER                     = 5,
 V_SCA_ADV_ORDER                     = 5,
 gwd_opt                             = 0,
 /

 &bdy_control
 spec_bdy_width                      = 5,
 spec_zone                           = 1,
 relax_zone                          = 4,
 specified                           = .true.,
 nested                              = .false.,
 /

 &grib2
 /

 &namelist_quilt
 nio_tasks_per_group = 32,
 nio_groups = 3,
 /
